%Chk=6WZ3_small_opt.chk
%Mem=32GB
%NProcShared=8
# HF/3-21G* Geom=PrintInputOrient SCF=QC
 
CLR
 
0  1
O          -0.025    3.851   -1.150 
O          -1.538    1.706    0.776 
O          -1.829   -0.143   -0.911 
O          -1.061   -2.774   -0.910 
O           2.855    3.307   -1.490 
O           4.257   -1.520    0.486 
O           3.676   -0.244   -1.762 
O          -0.702   -0.317    3.055 
O          -2.775    3.657    0.745 
O          -2.264   -1.925   -2.301 
O           5.706    0.260    0.223 
C           0.391    0.789   -0.292 
C          -0.522    2.035   -0.157 
C           1.776    1.111   -1.018 
C           0.190    3.342    0.195 
C          -0.425   -0.454   -0.820 
C          -0.304   -1.857   -0.084 
C           2.457    2.417   -0.441 
C           1.646    3.210    0.582 
C           1.155   -2.412    0.011 
C          -1.065    2.850   -1.344 
C           2.883    0.001   -0.843 
C          -0.973   -1.931    1.313 
C           1.901   -1.469    0.975 
C           1.592    1.250   -2.560 
C           3.107   -0.692    0.510 
C          -0.098   -1.493    2.499 
C           1.353   -1.184    2.188 
C           1.210   -3.843    0.639 
C           1.727   -2.646   -1.413 
C           2.078   -0.442    3.286 
C          -2.151    2.777    1.322 
C          -2.603   -1.109   -1.458 
C          -1.946    2.730    2.806 
C           5.418   -0.920    0.078 
C          -3.972   -1.051   -0.886 
C           6.309   -1.925   -0.585 
C          -4.705   -2.216   -0.791 
C          -4.469    0.165   -0.466 
C          -5.991   -2.162   -0.253 
C          -5.754    0.219    0.071 
C          -6.515   -0.944    0.178 
H           0.658    0.594    0.739 
H          -0.267    4.040    0.904 
H          -0.133   -0.613   -1.860 
H           3.400    2.159    0.053 
H           1.708    2.709    1.556 
H           2.083    4.209    0.709 
H          -0.997    2.358   -2.317 
H          -2.059    3.299   -1.315 
H          -1.288   -2.965    1.508 
H          -1.920   -1.378    1.311 
H           0.943    2.075   -2.845 
H           2.548    1.440   -3.065 
H           1.205    0.339   -3.022 
H           3.325    0.132    1.197 
H          -0.140   -2.257    3.284 
H           2.250   -4.190    0.698 
H           0.811   -3.899    1.655 
H           0.664   -4.579    0.038 
H           2.787   -2.920   -1.373 
H           1.210   -3.471   -1.919 
H           1.627   -1.788   -2.076 
H          -1.140   -3.628   -0.455 
H           2.060    3.762   -1.816 
H           1.831    0.623    3.263 
H           1.792   -0.843    4.265 
H           3.165   -0.558    3.223 
H          -0.760    0.347    2.351 
H          -2.317    3.659    3.249 
H          -2.507    1.894    3.230 
H          -0.883    2.645    3.044 
H           5.793   -2.371   -1.440 
H           6.597   -2.695    0.133 
H           7.212   -1.427   -0.948 
H          -4.305   -3.171   -1.119 
H          -3.909    1.089   -0.562 
H          -6.583   -3.069   -0.169 
H          -6.165    1.169    0.401 
H          -7.517   -0.901    0.595  

